Version 4
SHEET 1 884 680
WIRE -96 16 -144 16
WIRE 32 16 -16 16
WIRE 224 16 112 16
WIRE 320 16 224 16
WIRE 432 16 384 16
WIRE 736 16 432 16
WIRE 768 16 736 16
WIRE -144 48 -144 16
WIRE 224 96 224 16
WIRE 432 96 432 16
WIRE 736 112 736 16
WIRE 192 160 176 160
WIRE -96 192 -144 192
WIRE 48 192 -16 192
WIRE 176 192 176 160
WIRE 176 192 48 192
WIRE -144 208 -144 192
WIRE 224 272 224 224
WIRE 224 272 48 272
WIRE 432 272 432 160
WIRE 432 272 224 272
WIRE 736 272 736 192
WIRE 224 304 224 272
FLAG 768 16 Vout
IOPIN 768 16 Out
FLAG 736 272 0
FLAG 224 304 0
FLAG -144 48 0
FLAG -144 208 0
SYMBOL res 32 176 R0
SYMATTR InstName R1
SYMATTR Value 100k
SYMBOL res 720 96 R0
SYMATTR InstName RL
SYMATTR Value 24
SYMBOL schottky 320 32 R270
WINDOW 0 32 32 VTop 2
WINDOW 3 0 32 VBottom 2
SYMATTR InstName D1
SYMATTR Value 1N5817
SYMBOL voltage 0 16 R90
WINDOW 0 -32 56 VBottom 2
WINDOW 3 32 56 VTop 2
WINDOW 123 0 0 Left 0
WINDOW 39 0 0 Left 0
SYMATTR InstName V1
SYMATTR Value 5
SYMBOL ind 16 32 R270
WINDOW 0 32 56 VTop 2
WINDOW 3 5 56 VBottom 2
SYMATTR InstName L1
SYMATTR Value 220µ
SYMBOL cap 416 96 R0
SYMATTR InstName C1
SYMATTR Value 330µ
SYMBOL voltage 0 192 R90
WINDOW 0 -32 56 VBottom 2
WINDOW 3 36 155 VTop 2
WINDOW 123 0 0 Left 0
WINDOW 39 0 0 Left 0
SYMATTR InstName V2
SYMATTR Value PULSE(0 5 0 1n 1n 6u 10u)
SYMBOL AutoGenerated\\FQP30N06 224 160 R0
WINDOW 0 49 -74 Bottom 2
WINDOW 3 103 -19 Top 2
SYMATTR InstName U1
TEXT -214 328 Left 2 !.tran 20ms
