Version 4
SHEET 1 880 680
WIRE 256 -32 192 -32
WIRE 400 -32 336 -32
WIRE 400 -16 400 -32
WIRE 192 32 192 -32
WIRE 192 32 64 32
WIRE 400 32 192 32
WIRE 64 48 64 32
WIRE 400 112 400 32
WIRE 192 128 192 32
WIRE 160 144 64 144
WIRE 160 176 128 176
WIRE 64 224 64 192
WIRE 128 224 128 176
WIRE 240 224 128 224
WIRE 400 224 320 224
WIRE 128 336 128 304
WIRE 400 336 400 304
FLAG 64 224 0
FLAG 192 192 0
FLAG 128 336 0
FLAG 400 336 0
FLAG 400 -16 0
SYMBOL OpAmps\\OP07 192 96 R0
SYMATTR InstName U1
SYMBOL zener 80 192 R180
WINDOW 0 24 64 Left 2
WINDOW 3 24 0 Left 2
SYMATTR InstName D1
SYMBOL res 48 32 R0
SYMATTR InstName R1
SYMBOL res 112 208 R0
SYMATTR InstName R2
SYMBOL res 384 208 R0
SYMATTR InstName R3
SYMBOL res 336 208 R90
WINDOW 0 5 56 VBottom 2
WINDOW 3 27 56 VTop 2
SYMATTR InstName R4
SYMBOL voltage 240 -32 M90
WINDOW 0 -32 56 VBottom 2
WINDOW 3 32 56 VTop 2
SYMATTR InstName V1
SYMBOL Contrib\\Toshiba\\nmos\\TK10A50W 352 112 R0
SYMATTR InstName U2
