Version 4
SHEET 1 880 680
WIRE 256 -32 192 -32
WIRE 400 -32 336 -32
WIRE 400 -16 400 -32
WIRE 192 32 192 -32
WIRE 192 32 64 32
WIRE 400 32 192 32
WIRE 64 48 64 32
WIRE 400 112 400 32
WIRE 192 128 192 32
WIRE 352 128 256 128
WIRE 64 144 64 128
WIRE 160 144 64 144
WIRE 256 160 256 128
WIRE 256 160 224 160
WIRE 64 176 64 144
WIRE 160 176 128 176
WIRE 128 224 128 176
WIRE 240 224 128 224
WIRE 400 224 400 208
WIRE 400 224 320 224
WIRE 480 224 400 224
WIRE 128 336 128 304
WIRE 400 336 400 304
WIRE 480 336 480 288
FLAG 192 192 0
FLAG 128 336 0
FLAG 400 336 0
FLAG 400 -16 0
FLAG 480 336 0
FLAG 64 240 0
SYMBOL zener 80 240 R180
WINDOW 0 24 64 Left 2
WINDOW 3 24 0 Left 2
SYMATTR InstName D1
SYMATTR Value zen
SYMBOL res 48 32 R0
SYMATTR InstName R1
SYMATTR Value 1k
SYMBOL res 112 208 R0
SYMATTR InstName R
SYMATTR Value 10k
SYMBOL res 384 208 R0
SYMATTR InstName R3
SYMATTR Value 25
SYMBOL res 336 208 R90
WINDOW 0 5 56 VBottom 2
WINDOW 3 27 56 VTop 2
SYMATTR InstName R4
SYMATTR Value 10k
SYMBOL voltage 240 -32 M90
WINDOW 0 -32 56 VBottom 2
WINDOW 3 32 56 VTop 2
WINDOW 123 0 0 Left 0
WINDOW 39 -4 56 VBottom 2
SYMATTR InstName V1
SYMATTR Value 12
SYMBOL pmos 352 208 M180
SYMATTR InstName M1
SYMBOL cap 464 224 R0
SYMATTR InstName C1
SYMATTR Value 1µ
SYMBOL OpAmps\\OP07 192 96 R0
SYMATTR InstName U2
TEXT -240 272 Left 2 !.model zen D(Vrev=2.5)
TEXT -242 360 Left 2 !.tran 1
